
     RDKit          3D

 44 46  0  0  0  0  0  0  0  0999 V2000
   46.9120    3.5624    6.4397 C   0  0  0  0  0  0  0  0  0  0  0  0
   46.0327    3.2329    7.6058 C   0  0  0  0  0  0  0  0  0  0  0  0
   45.2592    4.2336    8.2191 C   0  0  0  0  0  0  0  0  0  0  0  0
   44.4143    3.9412    9.2972 C   0  0  0  0  0  0  0  0  0  0  0  0
   43.6448    4.9093    9.9714 N   0  0  0  0  0  0  0  0  0  0  0  0
   43.6050    5.2105   11.3214 C   0  0  0  0  0  0  0  0  0  0  0  0
   42.4952    5.3155   12.0750 C   0  0  0  0  0  0  0  0  0  0  0  0
   42.4738    5.6568   13.4021 O   0  0  0  0  0  0  0  0  0  0  0  0
   44.9139    5.5462   11.9288 C   0  0  0  0  0  0  0  0  0  0  0  0
   45.4336    4.7581   12.9642 C   0  0  0  0  0  0  0  0  0  0  0  0
   46.6633    5.0825   13.5497 C   0  0  0  0  0  0  0  0  0  0  0  0
   47.3700    6.2137   13.1208 C   0  0  0  0  0  0  0  0  0  0  0  0
   46.8563    7.0016   12.0904 C   0  0  0  0  0  0  0  0  0  0  0  0
   45.6369    6.6676   11.4967 C   0  0  0  0  0  0  0  0  0  0  0  0
   47.1768    4.2232   14.6475 C   0  0  0  0  0  0  0  0  0  0  0  0
   47.5234    3.0747   14.3982 O   0  0  0  0  0  0  0  0  0  0  0  0
   47.3913    4.8679   15.8462 N   0  0  0  0  0  0  0  0  0  0  0  0
   47.0078    4.3001   17.0278 C   0  0  0  0  0  0  0  0  0  0  0  0
   46.3988    3.2555   17.1935 O   0  0  0  0  0  0  0  0  0  0  0  0
   47.3361    5.0827   18.0984 N   0  0  0  0  0  0  0  0  0  0  0  0
   44.3718    2.6194    9.7637 C   0  0  0  0  0  0  0  0  0  0  0  0
   45.1393    1.6160    9.1650 C   0  0  0  0  0  0  0  0  0  0  0  0
   45.9714    1.9220    8.0842 C   0  0  0  0  0  0  0  0  0  0  0  0
   46.7906    0.8533    7.4431 C   0  0  0  0  0  0  0  0  0  0  0  0
   46.7145   -0.2853    7.8905 O   0  0  0  0  0  0  0  0  0  0  0  0
   47.6068    1.1579    6.3779 N   0  0  0  0  0  0  0  0  0  0  0  0
   47.6517    2.3638    5.9428 C   0  0  0  0  0  0  0  0  0  0  0  0
   48.4603    2.6130    4.9029 O   0  0  0  0  0  0  0  0  0  0  0  0
   46.3018    3.9510    5.6174 H   0  0  0  0  0  0  0  0  0  0  0  0
   47.6464    4.3207    6.7350 H   0  0  0  0  0  0  0  0  0  0  0  0
   45.2974    5.2436    7.8179 H   0  0  0  0  0  0  0  0  0  0  0  0
   43.3810    5.6840    9.3655 H   0  0  0  0  0  0  0  0  0  0  0  0
   41.5024    5.1599   11.6718 H   0  0  0  0  0  0  0  0  0  0  0  0
   43.3768    5.5597   13.7524 H   0  0  0  0  0  0  0  0  0  0  0  0
   44.8863    3.8821   13.3102 H   0  0  0  0  0  0  0  0  0  0  0  0
   48.3011    6.5104   13.5971 H   0  0  0  0  0  0  0  0  0  0  0  0
   47.3965    7.8834   11.7535 H   0  0  0  0  0  0  0  0  0  0  0  0
   45.2445    7.2886   10.6936 H   0  0  0  0  0  0  0  0  0  0  0  0
   47.2956    5.8705   15.8583 H   0  0  0  0  0  0  0  0  0  0  0  0
   47.1304    4.6123   18.9741 H   0  0  0  0  0  0  0  0  0  0  0  0
   48.2684    5.4756   18.0771 H   0  0  0  0  0  0  0  0  0  0  0  0
   43.7436    2.3619   10.6146 H   0  0  0  0  0  0  0  0  0  0  0  0
   45.0869    0.5996    9.5501 H   0  0  0  0  0  0  0  0  0  0  0  0
   48.0178    2.2784    4.1024 H   0  0  0  0  0  0  0  0  0  0  0  0
  1  2  1  0
  2  3  2  0
  3  4  1  0
  4  5  1  0
  5  6  1  0
  6  7  2  3
  7  8  1  0
  6  9  1  0
  9 10  2  0
 10 11  1  0
 11 12  2  0
 12 13  1  0
 13 14  2  0
 11 15  1  0
 15 16  2  0
 15 17  1  0
 17 18  1  0
 18 19  2  0
 18 20  1  0
  4 21  2  0
 21 22  1  0
 22 23  2  0
 23 24  1  0
 24 25  2  0
 24 26  1  0
 26 27  2  0
 27 28  1  0
 27  1  1  0
 23  2  1  0
 14  9  1  0
  1 29  1  0
  1 30  1  0
  3 31  1  0
  5 32  1  0
  7 33  1  0
  8 34  1  0
 10 35  1  0
 12 36  1  0
 13 37  1  0
 14 38  1  0
 17 39  1  0
 20 40  1  0
 20 41  1  0
 21 42  1  0
 22 43  1  0
 28 44  1  0
M  END
>  <SMILES>  (1) 
C1C2=CC(NC(=CO)C3=CC(=CC=C3)C(=O)NC(=O)N)=CC=C2C(=O)N=C1O

>  <SELFIE>  (1) 
[C][C][=C][C][Branch2][Ring1][O][N][C][=Branch1][Ring1][=C][O][C][=C][C][=Branch1][=Branch1][=C][C][=C][Ring1][=Branch1][C][=Branch1][C][=O][N][C][=Branch1][C][=O][N][=C][C][=C][Ring2][Ring1][=Branch1][C][=Branch1][C][=O][N][=C][Ring2][Ring1][O][=O]

>  <docking_score>  (1) 
-13.051

$$$$

     RDKit          3D

 44 46  0  0  0  0  0  0  0  0999 V2000
   46.9728    3.5537    6.4037 C   0  0  0  0  0  0  0  0  0  0  0  0
   46.1168    3.2537    7.5949 C   0  0  0  0  0  0  0  0  0  0  0  0
   45.3924    4.2790    8.2272 C   0  0  0  0  0  0  0  0  0  0  0  0
   44.5695    4.0148    9.3293 C   0  0  0  0  0  0  0  0  0  0  0  0
   43.8496    5.0075   10.0224 N   0  0  0  0  0  0  0  0  0  0  0  0
   43.6887    5.1803   11.3858 C   0  0  0  0  0  0  0  0  0  0  0  0
   42.5161    5.3155   12.0319 C   0  0  0  0  0  0  0  0  0  0  0  0
   42.3791    5.5284   13.3787 O   0  0  0  0  0  0  0  0  0  0  0  0
   44.9471    5.3329   12.1525 C   0  0  0  0  0  0  0  0  0  0  0  0
   45.5475    6.5927   12.2786 C   0  0  0  0  0  0  0  0  0  0  0  0
   46.7448    6.7365   12.9899 C   0  0  0  0  0  0  0  0  0  0  0  0
   47.3641    5.6157   13.5586 C   0  0  0  0  0  0  0  0  0  0  0  0
   46.7702    4.3594   13.4354 C   0  0  0  0  0  0  0  0  0  0  0  0
   45.5676    4.2202   12.7386 C   0  0  0  0  0  0  0  0  0  0  0  0
   47.3506    8.0889   13.0964 C   0  0  0  0  0  0  0  0  0  0  0  0
   47.7402    8.6533   12.0810 O   0  0  0  0  0  0  0  0  0  0  0  0
   47.2551    8.6788   14.3379 N   0  0  0  0  0  0  0  0  0  0  0  0
   48.3203    9.3327   14.8889 C   0  0  0  0  0  0  0  0  0  0  0  0
   49.4524    9.4276   14.4431 O   0  0  0  0  0  0  0  0  0  0  0  0
   48.0123    9.8713   16.1060 N   0  0  0  0  0  0  0  0  0  0  0  0
   44.4992    2.6959    9.8002 C   0  0  0  0  0  0  0  0  0  0  0  0
   45.2180    1.6681    9.1828 C   0  0  0  0  0  0  0  0  0  0  0  0
   46.0284    1.9462    8.0783 C   0  0  0  0  0  0  0  0  0  0  0  0
   46.7958    0.8515    7.4172 C   0  0  0  0  0  0  0  0  0  0  0  0
   46.6971   -0.2835    7.8695 O   0  0  0  0  0  0  0  0  0  0  0  0
   47.5907    1.1287    6.3287 N   0  0  0  0  0  0  0  0  0  0  0  0
   47.6607    2.3319    5.8893 C   0  0  0  0  0  0  0  0  0  0  0  0
   48.4470    2.5541    4.8265 O   0  0  0  0  0  0  0  0  0  0  0  0
   46.3520    3.9597    5.5979 H   0  0  0  0  0  0  0  0  0  0  0  0
   47.7383    4.2894    6.6763 H   0  0  0  0  0  0  0  0  0  0  0  0
   45.4505    5.2866    7.8224 H   0  0  0  0  0  0  0  0  0  0  0  0
   43.7550    5.8651    9.4814 H   0  0  0  0  0  0  0  0  0  0  0  0
   41.5634    5.2923   11.5177 H   0  0  0  0  0  0  0  0  0  0  0  0
   42.8545    6.3475   13.6039 H   0  0  0  0  0  0  0  0  0  0  0  0
   45.0776    7.4680   11.8316 H   0  0  0  0  0  0  0  0  0  0  0  0
   48.3192    5.6992   14.0709 H   0  0  0  0  0  0  0  0  0  0  0  0
   47.2457    3.4835   13.8706 H   0  0  0  0  0  0  0  0  0  0  0  0
   45.1121    3.2358   12.6480 H   0  0  0  0  0  0  0  0  0  0  0  0
   46.6962    8.2109   15.0331 H   0  0  0  0  0  0  0  0  0  0  0  0
   48.7794   10.4311   16.4647 H   0  0  0  0  0  0  0  0  0  0  0  0
   47.1236   10.3527   16.1535 H   0  0  0  0  0  0  0  0  0  0  0  0
   43.8876    2.4594   10.6691 H   0  0  0  0  0  0  0  0  0  0  0  0
   45.1450    0.6544    9.5719 H   0  0  0  0  0  0  0  0  0  0  0  0
   48.1836    3.4093    4.4423 H   0  0  0  0  0  0  0  0  0  0  0  0
  1  2  1  0
  2  3  2  0
  3  4  1  0
  4  5  1  0
  5  6  1  0
  6  7  2  3
  7  8  1  0
  6  9  1  0
  9 10  2  0
 10 11  1  0
 11 12  2  0
 12 13  1  0
 13 14  2  0
 11 15  1  0
 15 16  2  0
 15 17  1  0
 17 18  1  0
 18 19  2  0
 18 20  1  0
  4 21  2  0
 21 22  1  0
 22 23  2  0
 23 24  1  0
 24 25  2  0
 24 26  1  0
 26 27  2  0
 27 28  1  0
 27  1  1  0
 23  2  1  0
 14  9  1  0
  1 29  1  0
  1 30  1  0
  3 31  1  0
  5 32  1  0
  7 33  1  0
  8 34  1  0
 10 35  1  0
 12 36  1  0
 13 37  1  0
 14 38  1  0
 17 39  1  0
 20 40  1  0
 20 41  1  0
 21 42  1  0
 22 43  1  0
 28 44  1  0
M  END
>  <SMILES>  (2) 
C1C2=CC(NC(=CO)C3=CC(=CC=C3)C(=O)NC(=O)N)=CC=C2C(=O)N=C1O

>  <SELFIE>  (2) 
[C][C][=C][C][Branch2][Ring1][O][N][C][=Branch1][Ring1][=C][O][C][=C][C][=Branch1][=Branch1][=C][C][=C][Ring1][=Branch1][C][=Branch1][C][=O][N][C][=Branch1][C][=O][N][=C][C][=C][Ring2][Ring1][=Branch1][C][=Branch1][C][=O][N][=C][Ring2][Ring1][O][=O]

>  <docking_score>  (2) 
-11.390000000000001

$$$$

     RDKit          3D

 44 46  0  0  0  0  0  0  0  0999 V2000
   47.0726    3.5148    6.5420 C   0  0  0  0  0  0  0  0  0  0  0  0
   46.1209    3.2526    7.6676 C   0  0  0  0  0  0  0  0  0  0  0  0
   45.3733    4.3032    8.2270 C   0  0  0  0  0  0  0  0  0  0  0  0
   44.4623    4.0745    9.2659 C   0  0  0  0  0  0  0  0  0  0  0  0
   43.7138    5.0935    9.8868 N   0  0  0  0  0  0  0  0  0  0  0  0
   43.6277    5.4224   11.2282 C   0  0  0  0  0  0  0  0  0  0  0  0
   42.6610    5.0289   12.0775 C   0  0  0  0  0  0  0  0  0  0  0  0
   42.5700    5.4003   13.3935 O   0  0  0  0  0  0  0  0  0  0  0  0
   44.6500    6.3821   11.7064 C   0  0  0  0  0  0  0  0  0  0  0  0
   45.7625    5.9266   12.4264 C   0  0  0  0  0  0  0  0  0  0  0  0
   46.7220    6.8336   12.8921 C   0  0  0  0  0  0  0  0  0  0  0  0
   46.5618    8.2066   12.6632 C   0  0  0  0  0  0  0  0  0  0  0  0
   45.4556    8.6647   11.9470 C   0  0  0  0  0  0  0  0  0  0  0  0
   44.5073    7.7570   11.4696 C   0  0  0  0  0  0  0  0  0  0  0  0
   47.8843    6.3099   13.6549 C   0  0  0  0  0  0  0  0  0  0  0  0
   47.7608    5.2766   14.3019 O   0  0  0  0  0  0  0  0  0  0  0  0
   49.0799    6.9521   13.4175 N   0  0  0  0  0  0  0  0  0  0  0  0
   49.9187    7.2780   14.4451 C   0  0  0  0  0  0  0  0  0  0  0  0
   49.7278    7.1332   15.6418 O   0  0  0  0  0  0  0  0  0  0  0  0
   51.0609    7.8797   13.9981 N   0  0  0  0  0  0  0  0  0  0  0  0
   44.3261    2.7652    9.7490 C   0  0  0  0  0  0  0  0  0  0  0  0
   45.0670    1.7124    9.2040 C   0  0  0  0  0  0  0  0  0  0  0  0
   45.9661    1.9552    8.1615 C   0  0  0  0  0  0  0  0  0  0  0  0
   46.7571    0.8338    7.5776 C   0  0  0  0  0  0  0  0  0  0  0  0
   46.5983   -0.2914    8.0374 O   0  0  0  0  0  0  0  0  0  0  0  0
   47.6395    1.0763    6.5500 N   0  0  0  0  0  0  0  0  0  0  0  0
   47.7703    2.2704    6.1000 C   0  0  0  0  0  0  0  0  0  0  0  0
   48.6410    2.4585    5.0980 O   0  0  0  0  0  0  0  0  0  0  0  0
   46.5250    3.9209    5.6847 H   0  0  0  0  0  0  0  0  0  0  0  0
   47.8313    4.2383    6.8623 H   0  0  0  0  0  0  0  0  0  0  0  0
   45.4852    5.3027    7.8135 H   0  0  0  0  0  0  0  0  0  0  0  0
   43.5186    5.8688    9.2562 H   0  0  0  0  0  0  0  0  0  0  0  0
   41.8417    4.3913   11.7700 H   0  0  0  0  0  0  0  0  0  0  0  0
   42.6584    4.5990   13.9391 H   0  0  0  0  0  0  0  0  0  0  0  0
   45.8901    4.8617   12.6170 H   0  0  0  0  0  0  0  0  0  0  0  0
   47.2692    8.9302   13.0602 H   0  0  0  0  0  0  0  0  0  0  0  0
   45.3214    9.7290   11.7676 H   0  0  0  0  0  0  0  0  0  0  0  0
   43.6478    8.1242   10.9120 H   0  0  0  0  0  0  0  0  0  0  0  0
   49.1012    7.6366   12.6788 H   0  0  0  0  0  0  0  0  0  0  0  0
   51.7160    8.0345   14.7580 H   0  0  0  0  0  0  0  0  0  0  0  0
   51.4933    7.4434   13.1940 H   0  0  0  0  0  0  0  0  0  0  0  0
   43.6442    2.5559   10.5714 H   0  0  0  0  0  0  0  0  0  0  0  0
   44.9413    0.7069    9.6008 H   0  0  0  0  0  0  0  0  0  0  0  0
   48.7731    1.5982    4.6610 H   0  0  0  0  0  0  0  0  0  0  0  0
  1  2  1  0
  2  3  2  0
  3  4  1  0
  4  5  1  0
  5  6  1  0
  6  7  2  3
  7  8  1  0
  6  9  1  0
  9 10  2  0
 10 11  1  0
 11 12  2  0
 12 13  1  0
 13 14  2  0
 11 15  1  0
 15 16  2  0
 15 17  1  0
 17 18  1  0
 18 19  2  0
 18 20  1  0
  4 21  2  0
 21 22  1  0
 22 23  2  0
 23 24  1  0
 24 25  2  0
 24 26  1  0
 26 27  2  0
 27 28  1  0
 27  1  1  0
 23  2  1  0
 14  9  1  0
  1 29  1  0
  1 30  1  0
  3 31  1  0
  5 32  1  0
  7 33  1  0
  8 34  1  0
 10 35  1  0
 12 36  1  0
 13 37  1  0
 14 38  1  0
 17 39  1  0
 20 40  1  0
 20 41  1  0
 21 42  1  0
 22 43  1  0
 28 44  1  0
M  END
>  <SMILES>  (3) 
C1C2=CC(NC(=CO)C3=CC(=CC=C3)C(=O)NC(=O)N)=CC=C2C(=O)N=C1O

>  <SELFIE>  (3) 
[C][C][=C][C][Branch2][Ring1][O][N][C][=Branch1][Ring1][=C][O][C][=C][C][=Branch1][=Branch1][=C][C][=C][Ring1][=Branch1][C][=Branch1][C][=O][N][C][=Branch1][C][=O][N][=C][C][=C][Ring2][Ring1][=Branch1][C][=Branch1][C][=O][N][=C][Ring2][Ring1][O][=O]

>  <docking_score>  (3) 
-11.327

$$$$
